6437877
  -OEChem-05082511172D

 69 72  0     1  0  0  0  0  0999 V2000
    6.3582   -2.2570    0.0000 S   0  0  0  0  0  0  0  0  0  0  0  0
    4.5691   -2.3448    0.0000 S   0  0  0  0  0  0  0  0  0  0  0  0
   12.9355   -1.7861    0.0000 S   0  0  0  0  0  0  0  0  0  0  0  0
    8.9381   -0.0443    0.0000 O   0  0  0  0  0  0  0  0  0  0  0  0
    7.2242    1.2430    0.0000 O   0  0  0  0  0  0  0  0  0  0  0  0
    5.4921    1.2430    0.0000 O   0  0  0  0  0  0  0  0  0  0  0  0
   10.1654   -1.2475    0.0000 O   0  0  0  0  0  0  0  0  0  0  0  0
    8.0902    2.7430    0.0000 O   0  0  0  0  0  0  0  0  0  0  0  0
    9.3830   -4.1436    0.0000 O   0  0  0  0  0  0  0  0  0  0  0  0
    7.2242    4.2430    0.0000 O   0  0  0  0  0  0  0  0  0  0  0  0
    7.2242   -0.7570    0.0000 N   0  0  0  0  0  0  0  0  0  0  0  0
    8.9381   -2.4697    0.0000 N   0  0  0  0  0  0  0  0  0  0  0  0
   10.3494   -3.8868    0.0000 N   0  0  0  0  0  0  0  0  0  0  0  0
   12.3525   -3.2955    0.0000 N   0  0  0  0  0  0  0  0  0  0  0  0
    3.2601   -3.2958    0.0000 N   0  0  0  0  0  0  0  0  0  0  0  0
   14.1252   -3.1129    0.0000 N   0  0  0  0  0  0  0  0  0  0  0  0
    7.2242   -1.7570    0.0000 C   0  0  1  0  0  0  0  0  0  0  0  0
    8.2325   -1.7611    0.0000 C   0  0  1  0  0  0  0  0  0  0  0  0
    8.2325   -0.7528    0.0000 C   0  0  0  0  0  0  0  0  0  0  0  0
    6.3582   -0.2570    0.0000 C   0  0  0  0  0  0  0  0  0  0  0  0
    5.4921   -1.7570    0.0000 C   0  0  0  0  0  0  0  0  0  0  0  0
    5.4921   -0.7570    0.0000 C   0  0  0  0  0  0  0  0  0  0  0  0
    6.3582    0.7430    0.0000 C   0  0  0  0  0  0  0  0  0  0  0  0
    4.6261   -0.2570    0.0000 C   0  0  0  0  0  0  0  0  0  0  0  0
    9.9046   -2.2129    0.0000 C   0  0  0  0  0  0  0  0  0  0  0  0
   10.6102   -2.9214    0.0000 C   0  0  0  0  0  0  0  0  0  0  0  0
    3.7601   -0.7570    0.0000 C   0  0  0  0  0  0  0  0  0  0  0  0
    7.2242    2.2430    0.0000 C   0  0  0  0  0  0  0  0  0  0  0  0
    8.9562    4.2430    0.0000 C   0  0  0  0  0  0  0  0  0  0  0  0
    3.7601   -1.7570    0.0000 C   0  0  0  0  0  0  0  0  0  0  0  0
   11.5767   -2.6646    0.0000 C   0  0  0  0  0  0  0  0  0  0  0  0
    8.0902    3.7430    0.0000 C   0  0  0  0  0  0  0  0  0  0  0  0
    9.8223    4.7430    0.0000 C   0  0  0  0  0  0  0  0  0  0  0  0
    8.4562    5.1090    0.0000 C   0  0  0  0  0  0  0  0  0  0  0  0
    9.4562    3.3770    0.0000 C   0  0  0  0  0  0  0  0  0  0  0  0
    2.9511   -2.3448    0.0000 C   0  0  0  0  0  0  0  0  0  0  0  0
   11.9370   -1.7317    0.0000 C   0  0  0  0  0  0  0  0  0  0  0  0
    2.0000   -2.0358    0.0000 C   0  0  0  0  0  0  0  0  0  0  0  0
   13.1923   -2.7526    0.0000 C   0  0  0  0  0  0  0  0  0  0  0  0
    4.2601   -3.2958    0.0000 C   0  0  0  0  0  0  0  0  0  0  0  0
    9.1222   -5.1090    0.0000 C   0  0  0  0  0  0  0  0  0  0  0  0
    7.4425   -2.5785    0.0000 H   0  0  0  0  0  0  0  0  0  0  0  0
    7.9934   -2.3332    0.0000 H   0  0  0  0  0  0  0  0  0  0  0  0
    4.8815   -1.6493    0.0000 H   0  0  0  0  0  0  0  0  0  0  0  0
    5.2801   -2.3396    0.0000 H   0  0  0  0  0  0  0  0  0  0  0  0
    8.7764   -3.0682    0.0000 H   0  0  0  0  0  0  0  0  0  0  0  0
    4.6261    0.3630    0.0000 H   0  0  0  0  0  0  0  0  0  0  0  0
    3.2231   -0.4470    0.0000 H   0  0  0  0  0  0  0  0  0  0  0  0
    7.0121    2.8256    0.0000 H   0  0  0  0  0  0  0  0  0  0  0  0
    6.6136    2.1354    0.0000 H   0  0  0  0  0  0  0  0  0  0  0  0
   10.1323    4.2061    0.0000 H   0  0  0  0  0  0  0  0  0  0  0  0
   10.3592    5.0530    0.0000 H   0  0  0  0  0  0  0  0  0  0  0  0
    9.5123    5.2800    0.0000 H   0  0  0  0  0  0  0  0  0  0  0  0
    8.9932    5.4190    0.0000 H   0  0  0  0  0  0  0  0  0  0  0  0
    8.1462    5.6460    0.0000 H   0  0  0  0  0  0  0  0  0  0  0  0
    7.9193    4.7990    0.0000 H   0  0  0  0  0  0  0  0  0  0  0  0
    8.9193    3.0670    0.0000 H   0  0  0  0  0  0  0  0  0  0  0  0
    9.7662    2.8401    0.0000 H   0  0  0  0  0  0  0  0  0  0  0  0
    9.9932    3.6870    0.0000 H   0  0  0  0  0  0  0  0  0  0  0  0
   11.6003   -1.2111    0.0000 H   0  0  0  0  0  0  0  0  0  0  0  0
    2.1916   -1.4461    0.0000 H   0  0  0  0  0  0  0  0  0  0  0  0
    1.4103   -1.8442    0.0000 H   0  0  0  0  0  0  0  0  0  0  0  0
    1.8084   -2.6254    0.0000 H   0  0  0  0  0  0  0  0  0  0  0  0
    4.6245   -3.7974    0.0000 H   0  0  0  0  0  0  0  0  0  0  0  0
    8.5236   -4.9473    0.0000 H   0  0  0  0  0  0  0  0  0  0  0  0
    8.9605   -5.7076    0.0000 H   0  0  0  0  0  0  0  0  0  0  0  0
    9.7207   -5.2707    0.0000 H   0  0  0  0  0  0  0  0  0  0  0  0
   14.6078   -2.7237    0.0000 H   0  0  0  0  0  0  0  0  0  0  0  0
   14.2209   -3.7254    0.0000 H   0  0  0  0  0  0  0  0  0  0  0  0
  1 17  1  0  0  0  0
  1 21  1  0  0  0  0
  2 30  1  0  0  0  0
  2 40  1  0  0  0  0
  3 37  1  0  0  0  0
  3 39  1  0  0  0  0
  4 19  2  0  0  0  0
  5 23  1  0  0  0  0
  5 28  1  0  0  0  0
  6 23  2  0  0  0  0
  7 25  2  0  0  0  0
  8 28  1  0  0  0  0
  8 32  1  0  0  0  0
  9 13  1  0  0  0  0
  9 41  1  0  0  0  0
 10 32  2  0  0  0  0
 11 17  1  0  0  0  0
 11 19  1  0  0  0  0
 11 20  1  0  0  0  0
 18 12  1  1  0  0  0
 12 25  1  0  0  0  0
 12 46  1  0  0  0  0
 13 26  2  0  0  0  0
 14 31  1  0  0  0  0
 14 39  2  0  0  0  0
 15 36  1  0  0  0  0
 15 40  2  0  0  0  0
 16 39  1  0  0  0  0
 16 68  1  0  0  0  0
 16 69  1  0  0  0  0
 17 18  1  0  0  0  0
 17 42  1  6  0  0  0
 18 19  1  0  0  0  0
 18 43  1  0  0  0  0
 20 22  2  0  0  0  0
 20 23  1  0  0  0  0
 21 22  1  0  0  0  0
 21 44  1  0  0  0  0
 21 45  1  0  0  0  0
 22 24  1  0  0  0  0
 24 27  2  0  0  0  0
 24 47  1  0  0  0  0
 25 26  1  0  0  0  0
 26 31  1  0  0  0  0
 27 30  1  0  0  0  0
 27 48  1  0  0  0  0
 28 49  1  0  0  0  0
 28 50  1  0  0  0  0
 29 32  1  0  0  0  0
 29 33  1  0  0  0  0
 29 34  1  0  0  0  0
 29 35  1  0  0  0  0
 30 36  2  0  0  0  0
 31 37  2  0  0  0  0
 33 51  1  0  0  0  0
 33 52  1  0  0  0  0
 33 53  1  0  0  0  0
 34 54  1  0  0  0  0
 34 55  1  0  0  0  0
 34 56  1  0  0  0  0
 35 57  1  0  0  0  0
 35 58  1  0  0  0  0
 35 59  1  0  0  0  0
 36 38  1  0  0  0  0
 37 60  1  0  0  0  0
 38 61  1  0  0  0  0
 38 62  1  0  0  0  0
 38 63  1  0  0  0  0
 40 64  1  0  0  0  0
 41 65  1  0  0  0  0
 41 66  1  0  0  0  0
 41 67  1  0  0  0  0
M  END
> <PUBCHEM_COMPOUND_CID>
6437877

> <PUBCHEM_COMPOUND_CANONICALIZED>
1

> <PUBCHEM_CACTVS_COMPLEXITY>
1160

> <PUBCHEM_CACTVS_HBOND_ACCEPTOR>
14

> <PUBCHEM_CACTVS_HBOND_DONOR>
2

> <PUBCHEM_CACTVS_ROTATABLE_BOND>
12

> <PUBCHEM_CACTVS_SUBSKEYS>
AAADceB7uABgAAAAAAAAAAAAAABYAWLAAAAgAAAAAAAQAAAB4AAAHgQUAAAADijF1genmRPYFAisAyXzfAAC8KlxCjkI2JW4YFiaZJjg5CE1EAAAlgL8oSYAAAAAAAAAAAAAAAAAAAAAAAAAAAAAAAAAAA==

> <PUBCHEM_IUPAC_OPENEYE_NAME>
2,2-dimethylpropanoyloxymethyl (6R,7R)-7-[[(2Z)-2-(2-aminothiazol-4-yl)-2-methoxyimino-acetyl]amino]-3-[(Z)-2-(4-methylthiazol-5-yl)vinyl]-8-oxo-5-thia-1-azabicyclo[4.2.0]oct-2-ene-2-carboxylate

> <PUBCHEM_IUPAC_CAS_NAME>
(6R,7R)-7-[[(2Z)-2-(2-amino-4-thiazolyl)-2-methoxyimino-1-oxoethyl]amino]-3-[(Z)-2-(4-methyl-5-thiazolyl)ethenyl]-8-oxo-5-thia-1-azabicyclo[4.2.0]oct-2-ene-2-carboxylic acid (2,2-dimethyl-1-oxopropoxy)methyl ester

> <PUBCHEM_IUPAC_NAME_MARKUP>
2,2-dimethylpropanoyloxymethyl (6<I>R</I>,7<I>R</I>)-7-[[(2<I>Z</I>)-2-(2-amino-1,3-thiazol-4-yl)-2-methoxyiminoacetyl]amino]-3-[(<I>Z</I>)-2-(4-methyl-1,3-thiazol-5-yl)ethenyl]-8-oxo-5-thia-1-azabicyclo[4.2.0]oct-2-ene-2-carboxylate

> <PUBCHEM_IUPAC_NAME>
2,2-dimethylpropanoyloxymethyl (6R,7R)-7-[[(2Z)-2-(2-amino-1,3-thiazol-4-yl)-2-methoxyiminoacetyl]amino]-3-[(Z)-2-(4-methyl-1,3-thiazol-5-yl)ethenyl]-8-oxo-5-thia-1-azabicyclo[4.2.0]oct-2-ene-2-carboxylate

> <PUBCHEM_IUPAC_SYSTEMATIC_NAME>
2,2-dimethylpropanoyloxymethyl (6R,7R)-7-[[(2Z)-2-(2-azanyl-1,3-thiazol-4-yl)-2-methoxyimino-ethanoyl]amino]-3-[(Z)-2-(4-methyl-1,3-thiazol-5-yl)ethenyl]-8-oxidanylidene-5-thia-1-azabicyclo[4.2.0]oct-2-ene-2-carboxylate

> <PUBCHEM_IUPAC_TRADITIONAL_NAME>
(6R,7R)-7-[[(2Z)-2-(2-aminothiazol-4-yl)-2-methyloximino-acetyl]amino]-8-keto-3-[(Z)-2-(4-methylthiazol-5-yl)vinyl]-5-thia-1-azabicyclo[4.2.0]oct-2-ene-2-carboxylic acid pivaloyloxymethyl ester

> <PUBCHEM_IUPAC_INCHI>
InChI=1S/C25H28N6O7S3/c1-12-15(41-10-27-12)7-6-13-8-39-21-17(29-19(32)16(30-36-5)14-9-40-24(26)28-14)20(33)31(21)18(13)22(34)37-11-38-23(35)25(2,3)4/h6-7,9-10,17,21H,8,11H2,1-5H3,(H2,26,28)(H,29,32)/b7-6-,30-16-/t17-,21-/m1/s1

> <PUBCHEM_IUPAC_INCHIKEY>
AFZFFLVORLEPPO-UVYJNCLZSA-N

> <PUBCHEM_XLOGP3>
4.7

> <PUBCHEM_EXACT_MASS>
620.11816077

> <PUBCHEM_MOLECULAR_FORMULA>
C25H28N6O7S3

> <PUBCHEM_MOLECULAR_WEIGHT>
620.7

> <PUBCHEM_REFERENCE_STANDARDIZATION>
Bypass - this structure was created from CID 6437877

> <PUBCHEM_SMILES>
CC1=C(SC=N1)/C=C\C2=C(N3[C@@H]([C@@H](C3=O)NC(=O)/C(=N\OC)/C4=CSC(=N4)N)SC2)C(=O)OCOC(=O)C(C)(C)C

> <PUBCHEM_OPENEYE_CAN_SMILES>
CC1=C(SC=N1)C=CC2=C(N3C(C(C3=O)NC(=O)C(=NOC)C4=CSC(=N4)N)SC2)C(=O)OCOC(=O)C(C)(C)C

> <PUBCHEM_OPENEYE_ISO_SMILES>
CC1=C(SC=N1)/C=C\C2=C(N3[C@@H]([C@@H](C3=O)NC(=O)/C(=N\OC)/C4=CSC(=N4)N)SC2)C(=O)OCOC(=O)C(C)(C)C

> <PUBCHEM_CACTVS_TPSA>
257

> <PUBCHEM_MONOISOTOPIC_WEIGHT>
620.11816077

> <PUBCHEM_TOTAL_CHARGE>
0

> <PUBCHEM_HEAVY_ATOM_COUNT>
41

> <PUBCHEM_ATOM_DEF_STEREO_COUNT>
2

> <PUBCHEM_ATOM_UDEF_STEREO_COUNT>
0

> <PUBCHEM_BOND_DEF_STEREO_COUNT>
2

> <PUBCHEM_BOND_UDEF_STEREO_COUNT>
0

> <PUBCHEM_ISOTOPIC_ATOM_COUNT>
0

> <PUBCHEM_COMPONENT_COUNT>
1

> <PUBCHEM_CACTVS_TAUTO_COUNT>
-1

> <PUBCHEM_COORDINATE_TYPE>
1
5
255

> <PUBCHEM_BONDANNOTATIONS>
18  12  5
14  31  8
14  39  8
15  36  8
15  40  8
17  42  6
2  30  8
2  40  8
3  37  8
3  39  8
30  36  8
31  37  8

$$$$
